LAMMPS (23 Jun 2022 - Update 2)
# Input file for uniaxial compressive loading of single crystal Silicon

# --------- INITIALIZATION ----------------------------
units 		metal
dimension	3
boundary	p	p	p
atom_style	atomic
#read_restart restart.rlx
read_data data.Si.erht_alb
Reading data file ...
  orthogonal box = (-0.047080545 -0.047080545 -0.047080545) to (54.357081 54.357081 54.357081)
  reading atoms ...
  8000 atoms
  reading velocities ...
  8000 velocities
write_dump all cfg dump.siphsw.0.cfg mass type xs ys zs modify element Si
# ---------- FORCE FIELDS ------------------------------
pair_style	tersoff
pair_coeff	* * Si_erhart_albe.tersoff Si
mass * 28.0855
# ------------- SETTINGS ---------------------------------

# Store final cell length for strain calculations
variable tmp equal "lz"
variable L0 equal 54.4041610899817
#variable dlt equal -0.001*v_L0
#variable dltn equal 0.001*v_L0
Initial Length, L0: 54.4041610899817
######################################
# DEFORMATION
variable i loop 5
label looping
variable inl equal (v_i-1)*10000
variable fnl equal v_i*10000
variable gh equal (v_i-1)*20000
variable did equal (2*v_i-1)
variable dd equal (2*v_i)
variable diid equal v_i*20000
include in.dfrm
compute tm all temp/com
compute prs all pressure tm
reset_timestep 0
timestep 0.001
fix             1 all npt temp 300 300 1 x 0 10000 1 y 0 10000 1 z 0 10000 1 drag 0
#variable srate equal 1e10
#variable srate1 equal "-v_srate / 1.0e12"
variable myst equal "step"
variable strain equal "(v_L0-lz)/v_L0"
variable p1 equal "v_strain"
variable p2 equal "pxx/10000"
variable p3 equal "pyy/10000"
variable p4 equal "pzz/10000"
variable mylx equal "lx"
variable myly equal "ly"
variable mylz equal "lz"
variable tmpo equal "temp"
variable dens equal "density"
variable ken equal "ke"
variable pen equal "pe"
variable enth equal "enthalpy"
variable prss equal c_prs

# Display thermo
thermo  1000
thermo_style    custom step temp lx ly lz v_p1 v_p2 v_p3 v_p4 ke pe press density
run 10000
  update every 1 steps, delay 10 steps, check yes
Step          Temp            Lx             Ly             Lz            v_p1           v_p2           v_p3           v_p4          KinEng         PotEng         Press         Density
0   298.6364       54.404161      54.404161      54.404161      5.2241793e-16  0.0041270887  -0.0014873685  -0.0029790708   308.77568     -36676.911     -1.1311688      2.3169937
Averages over the last 6 of 11 rows, steps 5000 to 10000:
Temp Lx Ly Lz v_p1 v_p2 v_p3 v_p4 KinEng PotEng Press Density
302.339 54.2663 54.266 54.2674 0.00251386 0.742835 0.743805 0.740317 312.604 -36680.4 7423.19 2.33466
Loop time of 4.44335 on 48 procs for 10000 steps with 8000 atoms

unfix 1
unfix def1
uncompute tm
uncompute prs
include in.rlx
#####################################################
compute tm all temp/com
compute prs all pressure tm
reset_timestep 0
timestep 0.001
fix eqb all npt temp 300 300 1 x 10000 10000 1 y 10000 10000 1 z 10000 10000 1 drag 0
variable myst equal "step"
variable strain equal "(v_L0-lz)/v_L0"
variable p1 equal "v_strain"
variable p2 equal "pxx/10000"
variable p3 equal "pyy/10000"
variable p4 equal "pzz/10000"
variable mylx equal "lx"
variable myly equal "ly"
variable mylz equal "lz"
variable tmpo equal "temp"
variable dens equal "density"
variable ken equal "ke"
variable pen equal "pe"
variable enth equal "enthalpy"
variable prss equal c_prs

# Dump to cfg for Ovito post processing
thermo  1000
thermo_style    custom step temp lx ly lz v_p1 v_p2 v_p3 v_p4 ke pe press density
run 10000
Step          Temp            Lx             Ly             Lz            v_p1           v_p2           v_p3           v_p4          KinEng         PotEng         Press         Density
0   298.74326      54.207466      54.245561      54.225471      0.0032845001   0.99792468     0.93033831     0.95979388     308.88616     -36678.249      9626.8562      2.3398853
Averages over the last 6 of 11 rows, steps 5000 to 10000:
Temp Lx Ly Lz v_p1 v_p2 v_p3 v_p4 KinEng PotEng Press Density
300.039 54.218 54.2179 54.2192 0.00339897 1.01405 1.00923 1.00714 310.226 -36679 10101.4 2.34089
Loop time of 4.55683 on 48 procs for 10000 steps with 8000 atoms

write_restart restart.rlx
System init for write_restart ...
write_dump all cfg dump.siphsw.20000.cfg mass type xs ys zs modify element Si
unfix def1
unfix eqb
uncompute tm
uncompute prs
####################################################################################
next i
jump in.phstr looping
variable inl equal (v_i-1)*10000
variable fnl equal v_i*10000
variable gh equal (v_i-1)*20000
variable did equal (2*v_i-1)
variable dd equal (2*v_i)
variable diid equal v_i*20000
include in.dfrm
compute tm all temp/com
compute prs all pressure tm
reset_timestep 0
timestep 0.001
fix             1 all npt temp 300 300 1 x 10000 20000 1 y 10000 20000 1 z 10000 20000 1 drag 0
#variable srate equal 1e10
#variable srate1 equal "-v_srate / 1.0e12"
variable myst equal "step"
variable strain equal "(v_L0-lz)/v_L0"
variable p1 equal "v_strain"
variable p2 equal "pxx/10000"
variable p3 equal "pyy/10000"
variable p4 equal "pzz/10000"
variable mylx equal "lx"
variable myly equal "ly"
variable mylz equal "lz"
variable tmpo equal "temp"
variable dens equal "density"
variable ken equal "ke"
variable pen equal "pe"
variable enth equal "enthalpy"
variable prss equal c_prs

# Display thermo
thermo  1000
thermo_style    custom step temp lx ly lz v_p1 v_p2 v_p3 v_p4 ke pe press density
run 10000
Step          Temp            Lx             Ly             Lz            v_p1           v_p2           v_p3           v_p4          KinEng         PotEng         Press         Density
0   295.30319      54.186492      54.252173      54.232826      0.0031493042   1.0482477      0.92244901     0.95818784     305.3293      -36678.49       9762.9483      2.3401883
Averages over the last 6 of 11 rows, steps 5000 to 10000:
Temp Lx Ly Lz v_p1 v_p2 v_p3 v_p4 KinEng PotEng Press Density
298.861 54.0891 54.083 54.0864 0.00584155 1.75632 1.76736 1.7611 309.008 -36672.1 17615.9 2.35811
Loop time of 4.71391 on 48 procs for 10000 steps with 8000 atoms

unfix 1
unfix def1
uncompute tm
uncompute prs
include in.rlx
#####################################################
compute tm all temp/com
compute prs all pressure tm
reset_timestep 0
timestep 0.001
fix eqb all npt temp 300 300 1 x 20000 20000 1 y 20000 20000 1 z 20000 20000 1 drag 0
variable myst equal "step"
variable strain equal "(v_L0-lz)/v_L0"
variable p1 equal "v_strain"
variable p2 equal "pxx/10000"
variable p3 equal "pyy/10000"
variable p4 equal "pzz/10000"
variable mylx equal "lx"
variable myly equal "ly"
variable mylz equal "lz"
variable tmpo equal "temp"
variable dens equal "density"
variable ken equal "ke"
variable pen equal "pe"
variable enth equal "enthalpy"
variable prss equal c_prs

# Dump to cfg for Ovito post processing
thermo  1000
thermo_style    custom step temp lx ly lz v_p1 v_p2 v_p3 v_p4 ke pe press density
run 10000
Step          Temp            Lx             Ly             Lz            v_p1           v_p2           v_p3           v_p4          KinEng         PotEng         Press         Density
0   301.7728       54.023918      54.045612      54.050732      0.0064963604   2.0638158      2.0289025      2.01059        312.01856     -36666.807      20344.361      2.3641395
Averages over the last 6 of 11 rows, steps 5000 to 10000:
Temp Lx Ly Lz v_p1 v_p2 v_p3 v_p4 KinEng PotEng Press Density
301.012 54.0405 54.0398 54.0421 0.00665468 2.01999 2.02222 2.01388 311.232 -36671.3 20187 2.36404
Loop time of 4.6449 on 48 procs for 10000 steps with 8000 atoms

write_restart restart.rlx
System init for write_restart ...
write_dump all cfg dump.siphsw.40000.cfg mass type xs ys zs modify element Si
unfix def1
unfix eqb
uncompute tm
uncompute prs
####################################################################################
next i
jump in.phstr looping
variable inl equal (v_i-1)*10000
variable fnl equal v_i*10000
variable gh equal (v_i-1)*20000
variable did equal (2*v_i-1)
variable dd equal (2*v_i)
variable diid equal v_i*20000
include in.dfrm
compute tm all temp/com
compute prs all pressure tm
reset_timestep 0
timestep 0.001
fix             1 all npt temp 300 300 1 x 20000 30000 1 y 20000 30000 1 z 20000 30000 1 drag 0
#variable srate equal 1e10
#variable srate1 equal "-v_srate / 1.0e12"
variable myst equal "step"
variable strain equal "(v_L0-lz)/v_L0"
variable p1 equal "v_strain"
variable p2 equal "pxx/10000"
variable p3 equal "pyy/10000"
variable p4 equal "pzz/10000"
variable mylx equal "lx"
variable myly equal "ly"
variable mylz equal "lz"
variable tmpo equal "temp"
variable dens equal "density"
variable ken equal "ke"
variable pen equal "pe"
variable enth equal "enthalpy"
variable prss equal c_prs

# Display thermo
thermo  1000
thermo_style    custom step temp lx ly lz v_p1 v_p2 v_p3 v_p4 ke pe press density
run 10000
Step          Temp            Lx             Ly             Lz            v_p1           v_p2           v_p3           v_p4          KinEng         PotEng         Press         Density
0   298.68502      54.042739      54.02333       54.038013      0.0067301455   2.032639       2.0699358      2.0350873      308.82594     -36672.845      20458.874      2.3648474
Averages over the last 6 of 11 rows, steps 5000 to 10000:
Temp Lx Ly Lz v_p1 v_p2 v_p3 v_p4 KinEng PotEng Press Density
299.802 53.9125 53.9143 53.9126 0.00903567 2.77984 2.77731 2.78152 309.981 -36656.9 27795.6 2.38088
Loop time of 4.64406 on 48 procs for 10000 steps with 8000 atoms

unfix 1
unfix def1
uncompute tm
uncompute prs
include in.rlx
#####################################################
compute tm all temp/com
compute prs all pressure tm
reset_timestep 0
timestep 0.001
fix eqb all npt temp 300 300 1 x 30000 30000 1 y 30000 30000 1 z 30000 30000 1 drag 0
variable myst equal "step"
variable strain equal "(v_L0-lz)/v_L0"
variable p1 equal "v_strain"
variable p2 equal "pxx/10000"
variable p3 equal "pyy/10000"
variable p4 equal "pzz/10000"
variable mylx equal "lx"
variable myly equal "ly"
variable mylz equal "lz"
variable tmpo equal "temp"
variable dens equal "density"
variable ken equal "ke"
variable pen equal "pe"
variable enth equal "enthalpy"
variable prss equal c_prs

# Dump to cfg for Ovito post processing
thermo  1000
thermo_style    custom step temp lx ly lz v_p1 v_p2 v_p3 v_p4 ke pe press density
run 10000
Step          Temp            Lx             Ly             Lz            v_p1           v_p2           v_p3           v_p4          KinEng         PotEng         Press         Density
0   303.91354      53.871392      53.895687      53.877978      0.0096717458   2.9922333      2.9446968      2.9708141      314.23199     -36652.626      29692.481      2.3850512
Averages over the last 6 of 11 rows, steps 5000 to 10000:
Temp Lx Ly Lz v_p1 v_p2 v_p3 v_p4 KinEng PotEng Press Density
300.369 53.8808 53.8724 53.8795 0.00964366 2.98419 2.99796 2.99037 310.567 -36653.2 29908.4 2.3856
Loop time of 4.49446 on 48 procs for 10000 steps with 8000 atoms

write_restart restart.rlx
System init for write_restart ...
write_dump all cfg dump.siphsw.60000.cfg mass type xs ys zs modify element Si
unfix def1
unfix eqb
uncompute tm
uncompute prs
####################################################################################
next i
jump in.phstr looping
variable inl equal (v_i-1)*10000
variable fnl equal v_i*10000
variable gh equal (v_i-1)*20000
variable did equal (2*v_i-1)
variable dd equal (2*v_i)
variable diid equal v_i*20000
include in.dfrm
compute tm all temp/com
compute prs all pressure tm
reset_timestep 0
timestep 0.001
fix             1 all npt temp 300 300 1 x 30000 40000 1 y 30000 40000 1 z 30000 40000 1 drag 0
#variable srate equal 1e10
#variable srate1 equal "-v_srate / 1.0e12"
variable myst equal "step"
variable strain equal "(v_L0-lz)/v_L0"
variable p1 equal "v_strain"
variable p2 equal "pxx/10000"
variable p3 equal "pyy/10000"
variable p4 equal "pzz/10000"
variable mylx equal "lx"
variable myly equal "ly"
variable mylz equal "lz"
variable tmpo equal "temp"
variable dens equal "density"
variable ken equal "ke"
variable pen equal "pe"
variable enth equal "enthalpy"
variable prss equal c_prs

# Display thermo
thermo  1000
thermo_style    custom step temp lx ly lz v_p1 v_p2 v_p3 v_p4 ke pe press density
run 10000
Step          Temp            Lx             Ly             Lz            v_p1           v_p2           v_p3           v_p4          KinEng         PotEng         Press         Density
0   294.50232      53.919826      53.834098      53.900769      0.0092528171   2.8770068      3.0324293      2.9243081      304.50124     -36653.375      29445.814      2.3846262
Averages over the last 6 of 11 rows, steps 5000 to 10000:
Temp Lx Ly Lz v_p1 v_p2 v_p3 v_p4 KinEng PotEng Press Density
300.468 53.7465 53.7618 53.7513 0.0120003 3.77869 3.74868 3.76639 310.67 -36634.6 37645.8 2.4022
Loop time of 4.44346 on 48 procs for 10000 steps with 8000 atoms

unfix 1
unfix def1
uncompute tm
uncompute prs
include in.rlx
#####################################################
compute tm all temp/com
compute prs all pressure tm
reset_timestep 0
timestep 0.001
fix eqb all npt temp 300 300 1 x 40000 40000 1 y 40000 40000 1 z 40000 40000 1 drag 0
variable myst equal "step"
variable strain equal "(v_L0-lz)/v_L0"
variable p1 equal "v_strain"
variable p2 equal "pxx/10000"
variable p3 equal "pyy/10000"
variable p4 equal "pzz/10000"
variable mylx equal "lx"
variable myly equal "ly"
variable mylz equal "lz"
variable tmpo equal "temp"
variable dens equal "density"
variable ken equal "ke"
variable pen equal "pe"
variable enth equal "enthalpy"
variable prss equal c_prs

# Dump to cfg for Ovito post processing
thermo  1000
thermo_style    custom step temp lx ly lz v_p1 v_p2 v_p3 v_p4 ke pe press density
run 10000
Step          Temp            Lx             Ly             Lz            v_p1           v_p2           v_p3           v_p4          KinEng         PotEng         Press         Density
0   303.95165      53.690788      53.752695      53.711705      0.012727998    4.0453236      3.9263078      3.989586       314.27139     -36627.51       39870.725      2.4068679
Averages over the last 6 of 11 rows, steps 5000 to 10000:
Temp Lx Ly Lz v_p1 v_p2 v_p3 v_p4 KinEng PotEng Press Density
298.987 53.7172 53.7127 53.7158 0.0126526 3.99896 4.00472 3.99718 309.138 -36627 40002.9 2.40729
Loop time of 4.53486 on 48 procs for 10000 steps with 8000 atoms

write_restart restart.rlx
System init for write_restart ...
write_dump all cfg dump.siphsw.80000.cfg mass type xs ys zs modify element Si
unfix def1
unfix eqb
uncompute tm
uncompute prs
####################################################################################
next i
jump in.phstr looping
variable inl equal (v_i-1)*10000
variable fnl equal v_i*10000
variable gh equal (v_i-1)*20000
variable did equal (2*v_i-1)
variable dd equal (2*v_i)
variable diid equal v_i*20000
include in.dfrm
compute tm all temp/com
compute prs all pressure tm
reset_timestep 0
timestep 0.001
fix             1 all npt temp 300 300 1 x 40000 50000 1 y 40000 50000 1 z 40000 50000 1 drag 0
#variable srate equal 1e10
#variable srate1 equal "-v_srate / 1.0e12"
variable myst equal "step"
variable strain equal "(v_L0-lz)/v_L0"
variable p1 equal "v_strain"
variable p2 equal "pxx/10000"
variable p3 equal "pyy/10000"
variable p4 equal "pzz/10000"
variable mylx equal "lx"
variable myly equal "ly"
variable mylz equal "lz"
variable tmpo equal "temp"
variable dens equal "density"
variable ken equal "ke"
variable pen equal "pe"
variable enth equal "enthalpy"
variable prss equal c_prs

# Display thermo
thermo  1000
thermo_style    custom step temp lx ly lz v_p1 v_p2 v_p3 v_p4 ke pe press density
run 10000
Step          Temp            Lx             Ly             Lz            v_p1           v_p2           v_p3           v_p4          KinEng         PotEng         Press         Density
0   296.01545      53.756365      53.652486      53.725618      0.012472265    3.9428644      4.1352281      3.9869511      306.06574     -36627.362      40216.812      2.4077979
Averages over the last 6 of 11 rows, steps 5000 to 10000:
Temp Lx Ly Lz v_p1 v_p2 v_p3 v_p4 KinEng PotEng Press Density
299.247 53.5947 53.6039 53.5977 0.0148228 4.76067 4.74011 4.75607 309.407 -36603 47522.8 2.42302
Loop time of 4.94658 on 48 procs for 10000 steps with 8000 atoms

unfix 1
unfix def1
uncompute tm
uncompute prs
include in.rlx
#####################################################
compute tm all temp/com
compute prs all pressure tm
reset_timestep 0
timestep 0.001
fix eqb all npt temp 300 300 1 x 50000 50000 1 y 50000 50000 1 z 50000 50000 1 drag 0
variable myst equal "step"
variable strain equal "(v_L0-lz)/v_L0"
variable p1 equal "v_strain"
variable p2 equal "pxx/10000"
variable p3 equal "pyy/10000"
variable p4 equal "pzz/10000"
variable mylx equal "lx"
variable myly equal "ly"
variable mylz equal "lz"
variable tmpo equal "temp"
variable dens equal "density"
variable ken equal "ke"
variable pen equal "pe"
variable enth equal "enthalpy"
variable prss equal c_prs

# Dump to cfg for Ovito post processing
thermo  1000
thermo_style    custom step temp lx ly lz v_p1 v_p2 v_p3 v_p4 ke pe press density
run 10000
Step          Temp            Lx             Ly             Lz            v_p1           v_p2           v_p3           v_p4          KinEng         PotEng         Press         Density
0   302.07928      53.526526      53.611642      53.551948      0.01566448     5.0630854      4.8987867      5.0039963      312.33544     -36593.55       49886.228      2.4278272
Averages over the last 6 of 11 rows, steps 5000 to 10000:
Temp Lx Ly Lz v_p1 v_p2 v_p3 v_p4 KinEng PotEng Press Density
299.165 53.5649 53.5561 53.5611 0.0154967 4.99573 5.01363 4.99973 309.322 -36594.3 50030.3 2.42819
Loop time of 4.50094 on 48 procs for 10000 steps with 8000 atoms

write_restart restart.rlx
System init for write_restart ...
write_dump all cfg dump.siphsw.100000.cfg mass type xs ys zs modify element Si
unfix def1
unfix eqb
uncompute tm
uncompute prs
####################################################################################
next i
jump in.phstr looping

######################################
# SIMULATION DONE
print "All done"
All done
