LAMMPS (14 May 2016)
units           metal
dimension       3
boundary        p    p    p
atom_style      atomic
variable qval equal 10
variable tval equal 0.02
variable shkvel equal 4 # shock velocity in Km/s #
variable Up equal 10*4
read_data data.sitrs.001
  orthogonal box = (0.0326622 0.0326622 0.0326622) to (86.8633 86.8633 86.8633)
  reading atoms ...
  32768 atoms
  reading velocities ...
  32768 velocities
pair_style      tersoff
pair_coeff      * * Si.tersoff Si
Reading potential file Si.tersoff with DATE: 2007-10-25
mass * 28.0855

compute mype all pe
compute myke all ke
compute mdtr all msd com yes
compute mdtf all msd com no
compute tm all temp/com
compute prss all pressure tm
compute msst_MSST_pe all pe

neighbor 2.0 bin
neigh_modify delay 0 every 1 check yes

reset_timestep 0
timestep 0.001
###########################################################
#This section have written to do shock simulation by means#
#of Equilibrium Molecular Dynamics(EMD),which is under the#
#framework of MSST.                                       #
# "dhug", "dray", change of specific volume should be     #
#monitored during the initiation. overfluctutaions of     #
#"dray"                                                   #
# and "dhug" possibly never come back. then check q and   #
#tscale                                                   #
###########################################################

fix		msst all msst z 40 q 10 tscale 0.02
MSST parameters:
  Shock in z direction
  Cell mass-like parameter qmass (units of mass^2/length^4) =  1.00000e+01
  Shock velocity =  4.00000e+01
  Artificial viscosity (units of mass/length/time) =  0.00000e+00
  Initial pressure calculated on first step
  Initial volume calculated on first step
  Initial energy calculated on first step
fix_modify msst temp tm press prss energy yes

#########################################################
# this is needed to make etotal equal the MSST conserved#
#quantity                                               #
#########################################################

variable dhug equal f_msst[1]
variable dray equal f_msst[2]
variable lgrvel equal f_msst[3]
variable lgrpos equal f_msst[4]
variable mystep equal "step"
variable mypxx equal "pxx/10000"
variable mypyy equal "pyy/10000"
variable mypzz equal "pzz/10000"
variable mylx equal "lx"
variable myly equal "ly"
variable mylz equal "lz"
#variable mytemp equal "c_msst_MSST_temp"
#variable press equal " c_msst_MSST_press"
variable mytemp equal "c_tm"
variable press equal " c_prss"
variable penrg equal "c_msst_MSST_pe"
variable delE equal f_msst
#variable ken equal "c_myke"
#variable pen equal "c_mype"
#variable enth equal "enthalpy"
variable mdys equal "c_mdtr[4]"
variable mdtn equal "c_mdtf[4]"
variable dns equal "density"
thermo 1000
thermo_style custom step pxx pyy pzz lx ly lz temp c_msst_MSST_pe v_dhug v_dray v_lgrvel v_lgrpos press f_msst
#Use cfg for Atomeye
dump 1 all cfg 5000 dump.40.si.*.cfg mass type xs ys zs ix iy iz
run 80000
  1 neighbor list requests
  update every 1 steps, delay 0 steps, check yes
Fix MSST v0 =  6.54666e+05
Fix MSST p0 =  1.09249e+02
Fix MSST e0 = to be -1.49146e+05
Fix MSST initial strain rate of -3.24572e-01 established by reducing temperature by factor of  2.00000e-02
Step Pxx Pyy Pzz Lx Ly Lz Temp msst_MSS dhug dray lgrvel lgrpos Press msst
0     34.25414    40.617455    67.319672    86.830676    86.830676    86.830676    294.12517   -150391.48    3.0012773   -41.929207            0            0    47.397089    25.423623
Averages over the last 41 of 81 rows, steps 40000 to 80000:
Pxx Pyy Pzz Lx Ly Lz Temp msst_MSS dhug dray lgrvel lgrpos Press msst
120.874 128.633 170.33 86.8307 86.8307 86.8164 300.128 -150417 -0.000732929 -0.164798 0.00655929 -2399.42 139.946 0.00472112
Loop time of 1296.75 on 20 procs for 80000 steps with 32768 atoms
