LAMMPS (14 May 2016)
# Input file for uniaxial compressive loading of single crystal aluminum
# Mark Tschopp, November 2010

# --------- INITIALIZATION ----------------------------
units 		metal
dimension	3
boundary	p	p	p
atom_style	atomic
read_data data.sisw
  orthogonal box = (-0.159496 -0.159496 -0.159496) to (271.709 271.709 271.709)
  reading atoms ...
  1000000 atoms
  reading velocities ...
  1000000 velocities

# ---------- FORCE FIELDS ------------------------------
pair_style	sw
pair_coeff	* * Si.sw Si
Reading potential file Si.sw with DATE: 2007-06-11
mass * 28.0855
# ------------- SETTINGS ---------------------------------
compute mype all pe/atom
compute myp all pe
compute myke all ke/atom
compute myk all ke
compute mycn all cna/atom 2.8
compute silic all basal/atom
compute silic1 all reduce sum c_silic[1]
compute silic2 all reduce sum c_silic[2]
compute silic3 all reduce sum c_silic[3]

# Store final cell length for strain calculations
variable tmp equal "lz"
variable L0 equal 271.868991896988
Initial Length, L0: 271.868991896988

######################################
# DEFORMATION
reset_timestep	0
timestep 0.001
fix		1 all nvt temp 300 300 1 drag 0
#variable srate equal 1.0e10
#variable srate1 equal "-v_srate / 1.0e12"
fix		2 all deform 1 x scale 0.9 y scale 0.9 z scale 0.9 units box remap x

# Output strain and stress info to file
# for units metal, pressure is in [bars] = 100 [kPa] = 1/10000 #[GPa]
# p2, p3, p4 are in GPa
variable myst equal "step"
variable strain equal "(v_L0-lz)/v_L0"
variable p1 equal "v_strain"
variable p2 equal "pxx/10000"
variable p3 equal "pyy/10000"
variable p4 equal "pzz/10000"
variable mylx equal "lx"
variable myly equal "ly"
variable mylz equal "lz"
variable tmpo equal "temp"
variable dens equal "density"
variable mk equal c_myk
variable mp equal c_myp

# Dump to cfg for Ovito post processing
dump     5 all cfg 200 dump.siphsw.*.cfg mass type xs ys zs c_myke c_mype c_mycn
dump  11 all custom 200 dump.*.file c_silic[1] c_silic[2] c_silic[3]
dump_modify     5 element Si
# Display thermo
thermo 	1000
thermo_style	custom step temp lx ly lz v_p1 v_p2 v_p3 v_p4 ke pe press density
restart 5000 restart.equil
run		40000
  3 neighbor list requests
  update every 1 steps, delay 10 steps, check yes
Step Temp Lx Ly Lz p1 p2 p3 p4 KinEng PotEng Press Density
0    300.01426    271.86899    271.86899    271.86899 -1.2545032e-15 -0.00049302244 -0.00076758768 -0.00079602188    38779.847   -4297388.2     -6.85544    2.3208773
Averages over the last 21 of 41 rows, steps 20000 to 40000:
Temp Lx Ly Lz p1 p2 p3 p4 KinEng PotEng Press Density
304.88 251.479 251.479 251.479 0.075 32.2344 32.2334 32.2339 39408.8 -3.92528e+06 322339 2.93714
Loop time of 31454.3 on 40 procs for 40000 steps with 1000000 atoms

######################################
# SIMULATION DONE
print "All done"
All done
